data_image0
_chemical_formula_structural       C70H4FeC6H10
_chemical_formula_sum              "C76 H14 Fe1"
_cell_length_a       9.85973
_cell_length_b       9.85973
_cell_length_c       18
_cell_angle_alpha    90
_cell_angle_beta     90
_cell_angle_gamma    120

_space_group_name_H-M_alt    "P 1"
_space_group_IT_number       1

loop_
  _space_group_symop_operation_xyz
  'x, y, z'

loop_
  _atom_site_type_symbol
  _atom_site_label
  _atom_site_symmetry_multiplicity
  _atom_site_fract_x
  _atom_site_fract_y
  _atom_site_fract_z
  _atom_site_occupancy
  C   C1        1.0  0.00000  0.00000  0.26605  1.0000
  C   C2        1.0  0.16667  0.08333  0.26369  1.0000
  C   C3        1.0  0.00000  0.25000  0.26313  1.0000
  C   C4        1.0  0.16667  0.33333  0.25943  1.0000
  C   C5        1.0  0.00000  0.50000  0.26343  1.0000
  C   C6        1.0  0.16667  0.58333  0.26041  1.0000
  C   C7        1.0  0.00000  0.75000  0.26633  1.0000
  C   C8        1.0  0.16667  0.83333  0.26469  1.0000
  C   C9        1.0  0.25000  0.00000  0.26292  1.0000
  C   C10       1.0  0.41667  0.08333  0.25961  1.0000
  C   C11       1.0  0.25000  0.25000  0.25912  1.0000
  C   C12       1.0  0.41667  0.33333  0.25569  1.0000
  C   C13       1.0  0.25000  0.50000  0.25676  1.0000
  C   C14       1.0  0.41667  0.58333  0.25407  1.0000
  C   C15       1.0  0.25000  0.75000  0.26066  1.0000
  C   C16       1.0  0.41667  0.83333  0.25820  1.0000
  C   C17       1.0  0.50000  0.00000  0.25954  1.0000
  C   C18       1.0  0.66667  0.08333  0.26047  1.0000
  C   C19       1.0  0.50000  0.25000  0.25700  1.0000
  C   C20       1.0  0.66667  0.33333  0.25971  1.0000
  C   C21       1.0  0.50000  0.50000  0.25571  1.0000
  C   C22       1.0  0.66667  0.58333  0.26014  1.0000
  C   C23       1.0  0.50000  0.75000  0.25567  1.0000
  C   C24       1.0  0.66667  0.83333  0.26024  1.0000
  C   C25       1.0  0.75000  0.00000  0.26253  1.0000
  C   C26       1.0  0.91667  0.08333  0.26470  1.0000
  C   C27       1.0  0.75000  0.25000  0.26174  1.0000
  C   C28       1.0  0.91667  0.33333  0.26307  1.0000
  C   C29       1.0  0.75000  0.50000  0.26220  1.0000
  C   C30       1.0  0.91667  0.58333  0.26500  1.0000
  C   C31       1.0  0.75000  0.75000  0.26291  1.0000
  C   C32       1.0  0.91667  0.83333  0.26653  1.0000
  C   C33       1.0  0.00000  0.00000  0.73724  1.0000
  C   C34       1.0  0.16667  0.08333  0.73907  1.0000
  C   C35       1.0  0.00000  0.25000  0.73903  1.0000
  C   C36       1.0  0.16667  0.33333  0.73939  1.0000
  C   C37       1.0  0.00000  0.50000  0.73845  1.0000
  C   C38       1.0  0.16667  0.58333  0.73931  1.0000
  C   C39       1.0  0.00000  0.75000  0.73639  1.0000
  C   C40       1.0  0.16667  0.83333  0.73859  1.0000
  C   C41       1.0  0.25000  0.00000  0.74001  1.0000
  C   C42       1.0  0.41667  0.08333  0.74207  1.0000
  C   C43       1.0  0.25000  0.25000  0.74021  1.0000
  C   C44       1.0  0.41667  0.33333  0.74070  1.0000
  C   C45       1.0  0.25000  0.50000  0.73975  1.0000
  C   C46       1.0  0.41667  0.58333  0.73934  1.0000
  C   C47       1.0  0.25000  0.75000  0.73976  1.0000
  C   C48       1.0  0.41667  0.83333  0.74110  1.0000
  C   C49       1.0  0.50000  0.00000  0.74182  1.0000
  C   C50       1.0  0.66667  0.08333  0.74122  1.0000
  C   C51       1.0  0.50000  0.25000  0.74250  1.0000
  C   C52       1.0  0.66667  0.33333  0.74053  1.0000
  C   C53       1.0  0.50000  0.50000  0.73841  1.0000
  C   C54       1.0  0.66667  0.58333  0.73638  1.0000
  C   C55       1.0  0.50000  0.75000  0.74046  1.0000
  C   C56       1.0  0.66667  0.83333  0.73906  1.0000
  C   C57       1.0  0.75000  0.00000  0.73940  1.0000
  C   C58       1.0  0.91667  0.08333  0.73824  1.0000
  C   C59       1.0  0.75000  0.25000  0.74036  1.0000
  C   C60       1.0  0.91667  0.33333  0.73915  1.0000
  C   C61       1.0  0.75000  0.50000  0.73706  1.0000
  C   C62       1.0  0.91667  0.58333  0.73668  1.0000
  C   C63       1.0  0.75000  0.75000  0.73606  1.0000
  C   C64       1.0  0.91667  0.83333  0.73598  1.0000
  C   C65       1.0  0.72392  0.71453  0.52379  1.0000
  C   C66       1.0  0.69641  0.69684  0.44390  1.0000
  C   C67       1.0  0.54456  0.68354  0.42929  1.0000
  C   C68       1.0  0.47824  0.69296  0.50014  1.0000
  C   C69       1.0  0.58818  0.70988  0.55863  1.0000
  C   C70       1.0  0.86588  0.72753  0.56502  1.0000
  H   H1        1.0  0.77664  0.68577  0.40028  1.0000
  H   H2        1.0  0.48110  0.65591  0.37296  1.0000
  H   H3        1.0  0.35407  0.67603  0.50896  1.0000
  H   H4        1.0  0.56734  0.70867  0.62183  1.0000
  Fe  Fe1       1.0  0.51366  0.49985  0.49910  1.0000
  C   C71       1.0  0.29960  0.28930  0.47635  1.0000
  C   C72       1.0  0.33073  0.30798  0.55612  1.0000
  C   C73       1.0  0.48097  0.31646  0.56940  1.0000
  C   C74       1.0  0.54225  0.30187  0.49795  1.0000
  C   C75       1.0  0.43053  0.28596  0.44069  1.0000
  C   C76       1.0  0.16210  0.28703  0.43498  1.0000
  H   H5        1.0  0.25613  0.32568  0.60067  1.0000
  H   H6        1.0  0.54780  0.34619  0.62493  1.0000
  H   H7        1.0  0.66330  0.31217  0.48789  1.0000
  H   H8        1.0  0.44673  0.28211  0.37731  1.0000
  H   H9        1.0  0.07349  0.28696  0.47797  1.0000
  H   H10       1.0  0.09854  0.17466  0.39787  1.0000
  H   H11       1.0  0.20357  0.39489  0.39563  1.0000
  H   H12       1.0  0.93598  0.69029  0.52583  1.0000
  H   H13       1.0  0.82843  0.65088  0.61852  1.0000
  H   H14       1.0  0.94927  0.85830  0.58282  1.0000
