data_image0
_chemical_formula_structural       C70H4FeC6H10
_chemical_formula_sum              "C76 H14 Fe1"
_cell_length_a       9.85973
_cell_length_b       9.85973
_cell_length_c       18
_cell_angle_alpha    90
_cell_angle_beta     90
_cell_angle_gamma    120

_space_group_name_H-M_alt    "P 1"
_space_group_IT_number       1

loop_
  _space_group_symop_operation_xyz
  'x, y, z'

loop_
  _atom_site_type_symbol
  _atom_site_label
  _atom_site_symmetry_multiplicity
  _atom_site_fract_x
  _atom_site_fract_y
  _atom_site_fract_z
  _atom_site_occupancy
  C   C1        1.0  0.00000  0.00000  0.26606  1.0000
  C   C2        1.0  0.16667  0.08333  0.26361  1.0000
  C   C3        1.0  0.00000  0.25000  0.26372  1.0000
  C   C4        1.0  0.16667  0.33333  0.25980  1.0000
  C   C5        1.0  0.00000  0.50000  0.26343  1.0000
  C   C6        1.0  0.16667  0.58333  0.26040  1.0000
  C   C7        1.0  0.00000  0.75000  0.26602  1.0000
  C   C8        1.0  0.16667  0.83333  0.26439  1.0000
  C   C9        1.0  0.25000  0.00000  0.26288  1.0000
  C   C10       1.0  0.41667  0.08333  0.25997  1.0000
  C   C11       1.0  0.25000  0.25000  0.25931  1.0000
  C   C12       1.0  0.41667  0.33333  0.25599  1.0000
  C   C13       1.0  0.25000  0.50000  0.25680  1.0000
  C   C14       1.0  0.41667  0.58333  0.25397  1.0000
  C   C15       1.0  0.25000  0.75000  0.26054  1.0000
  C   C16       1.0  0.41667  0.83333  0.25816  1.0000
  C   C17       1.0  0.50000  0.00000  0.25980  1.0000
  C   C18       1.0  0.66667  0.08333  0.26093  1.0000
  C   C19       1.0  0.50000  0.25000  0.25745  1.0000
  C   C20       1.0  0.66667  0.33333  0.26004  1.0000
  C   C21       1.0  0.50000  0.50000  0.25597  1.0000
  C   C22       1.0  0.66667  0.58333  0.26033  1.0000
  C   C23       1.0  0.50000  0.75000  0.25546  1.0000
  C   C24       1.0  0.66667  0.83333  0.26040  1.0000
  C   C25       1.0  0.75000  0.00000  0.26308  1.0000
  C   C26       1.0  0.91667  0.08333  0.26530  1.0000
  C   C27       1.0  0.75000  0.25000  0.26195  1.0000
  C   C28       1.0  0.91667  0.33333  0.26333  1.0000
  C   C29       1.0  0.75000  0.50000  0.26234  1.0000
  C   C30       1.0  0.91667  0.58333  0.26483  1.0000
  C   C31       1.0  0.75000  0.75000  0.26293  1.0000
  C   C32       1.0  0.91667  0.83333  0.26632  1.0000
  C   C33       1.0  0.00000  0.00000  0.73698  1.0000
  C   C34       1.0  0.16667  0.08333  0.73861  1.0000
  C   C35       1.0  0.00000  0.25000  0.73919  1.0000
  C   C36       1.0  0.16667  0.33333  0.73926  1.0000
  C   C37       1.0  0.00000  0.50000  0.73872  1.0000
  C   C38       1.0  0.16667  0.58333  0.73944  1.0000
  C   C39       1.0  0.00000  0.75000  0.73556  1.0000
  C   C40       1.0  0.16667  0.83333  0.73817  1.0000
  C   C41       1.0  0.25000  0.00000  0.73954  1.0000
  C   C42       1.0  0.41667  0.08333  0.74205  1.0000
  C   C43       1.0  0.25000  0.25000  0.73982  1.0000
  C   C44       1.0  0.41667  0.33333  0.74027  1.0000
  C   C45       1.0  0.25000  0.50000  0.73961  1.0000
  C   C46       1.0  0.41667  0.58333  0.73871  1.0000
  C   C47       1.0  0.25000  0.75000  0.73973  1.0000
  C   C48       1.0  0.41667  0.83333  0.74098  1.0000
  C   C49       1.0  0.50000  0.00000  0.74191  1.0000
  C   C50       1.0  0.66667  0.08333  0.74142  1.0000
  C   C51       1.0  0.50000  0.25000  0.74251  1.0000
  C   C52       1.0  0.66667  0.33333  0.74067  1.0000
  C   C53       1.0  0.50000  0.50000  0.73751  1.0000
  C   C54       1.0  0.66667  0.58333  0.73548  1.0000
  C   C55       1.0  0.50000  0.75000  0.74018  1.0000
  C   C56       1.0  0.66667  0.83333  0.73892  1.0000
  C   C57       1.0  0.75000  0.00000  0.73964  1.0000
  C   C58       1.0  0.91667  0.08333  0.73850  1.0000
  C   C59       1.0  0.75000  0.25000  0.74061  1.0000
  C   C60       1.0  0.91667  0.33333  0.73942  1.0000
  C   C61       1.0  0.75000  0.50000  0.73666  1.0000
  C   C62       1.0  0.91667  0.58333  0.73634  1.0000
  C   C63       1.0  0.75000  0.75000  0.73543  1.0000
  C   C64       1.0  0.91667  0.83333  0.73530  1.0000
  C   C65       1.0  0.72237  0.71309  0.52359  1.0000
  C   C66       1.0  0.69441  0.69669  0.44380  1.0000
  C   C67       1.0  0.54224  0.68298  0.42978  1.0000
  C   C68       1.0  0.47691  0.69223  0.50094  1.0000
  C   C69       1.0  0.58783  0.70950  0.55892  1.0000
  C   C70       1.0  0.86486  0.72553  0.56404  1.0000
  H   H1        1.0  0.77400  0.68523  0.40023  1.0000
  H   H2        1.0  0.47772  0.65562  0.37390  1.0000
  H   H3        1.0  0.35331  0.67561  0.51015  1.0000
  H   H4        1.0  0.56787  0.70820  0.62195  1.0000
  Fe  Fe1       1.0  0.51485  0.50113  0.49945  1.0000
  C   C71       1.0  0.30389  0.29254  0.47703  1.0000
  C   C72       1.0  0.33495  0.31097  0.55675  1.0000
  C   C73       1.0  0.48542  0.31988  0.56989  1.0000
  C   C74       1.0  0.54614  0.30498  0.49843  1.0000
  C   C75       1.0  0.43424  0.28855  0.44128  1.0000
  C   C76       1.0  0.16695  0.29209  0.43594  1.0000
  H   H5        1.0  0.25945  0.32784  0.60084  1.0000
  H   H6        1.0  0.55278  0.34956  0.62502  1.0000
  H   H7        1.0  0.66656  0.31448  0.48853  1.0000
  H   H8        1.0  0.45005  0.28313  0.37822  1.0000
  H   H9        1.0  0.07882  0.29278  0.47903  1.0000
  H   H10       1.0  0.10075  0.18066  0.39850  1.0000
  H   H11       1.0  0.21072  0.40165  0.39757  1.0000
  H   H12       1.0  0.93123  0.68416  0.52475  1.0000
  H   H13       1.0  0.82745  0.64983  0.61773  1.0000
  H   H14       1.0  0.95230  0.85573  0.58093  1.0000
