data_image0
_chemical_formula_structural       C70H4FeC6H10
_chemical_formula_sum              "C76 H14 Fe1"
_cell_length_a       9.85973
_cell_length_b       9.85973
_cell_length_c       18
_cell_angle_alpha    90
_cell_angle_beta     90
_cell_angle_gamma    120

_space_group_name_H-M_alt    "P 1"
_space_group_IT_number       1

loop_
  _space_group_symop_operation_xyz
  'x, y, z'

loop_
  _atom_site_type_symbol
  _atom_site_label
  _atom_site_symmetry_multiplicity
  _atom_site_fract_x
  _atom_site_fract_y
  _atom_site_fract_z
  _atom_site_occupancy
  C   C1        1.0  0.00000  0.00000  0.25364  1.0000
  C   C2        1.0  0.16667  0.08333  0.25234  1.0000
  C   C3        1.0  0.00000  0.25000  0.25344  1.0000
  C   C4        1.0  0.16667  0.33333  0.25037  1.0000
  C   C5        1.0  0.00000  0.50000  0.25387  1.0000
  C   C6        1.0  0.16667  0.58333  0.25205  1.0000
  C   C7        1.0  0.00000  0.75000  0.25450  1.0000
  C   C8        1.0  0.16667  0.83333  0.25483  1.0000
  C   C9        1.0  0.25000  0.00000  0.25367  1.0000
  C   C10       1.0  0.41667  0.08333  0.25287  1.0000
  C   C11       1.0  0.25000  0.25000  0.24918  1.0000
  C   C12       1.0  0.41667  0.33333  0.24796  1.0000
  C   C13       1.0  0.25000  0.50000  0.24896  1.0000
  C   C14       1.0  0.41667  0.58333  0.24759  1.0000
  C   C15       1.0  0.25000  0.75000  0.25328  1.0000
  C   C16       1.0  0.41667  0.83333  0.25214  1.0000
  C   C17       1.0  0.50000  0.00000  0.25349  1.0000
  C   C18       1.0  0.66667  0.08333  0.25368  1.0000
  C   C19       1.0  0.50000  0.25000  0.25082  1.0000
  C   C20       1.0  0.66667  0.33333  0.25242  1.0000
  C   C21       1.0  0.50000  0.50000  0.24769  1.0000
  C   C22       1.0  0.66667  0.58333  0.25110  1.0000
  C   C23       1.0  0.50000  0.75000  0.24999  1.0000
  C   C24       1.0  0.66667  0.83333  0.25172  1.0000
  C   C25       1.0  0.75000  0.00000  0.25378  1.0000
  C   C26       1.0  0.91667  0.08333  0.25394  1.0000
  C   C27       1.0  0.75000  0.25000  0.25411  1.0000
  C   C28       1.0  0.91667  0.33333  0.25412  1.0000
  C   C29       1.0  0.75000  0.50000  0.25280  1.0000
  C   C30       1.0  0.91667  0.58333  0.25423  1.0000
  C   C31       1.0  0.75000  0.75000  0.25231  1.0000
  C   C32       1.0  0.91667  0.83333  0.25359  1.0000
  C   C33       1.0  0.00000  0.00000  0.74483  1.0000
  C   C34       1.0  0.16667  0.08333  0.74568  1.0000
  C   C35       1.0  0.00000  0.25000  0.74646  1.0000
  C   C36       1.0  0.16667  0.33333  0.74954  1.0000
  C   C37       1.0  0.00000  0.50000  0.74545  1.0000
  C   C38       1.0  0.16667  0.58333  0.74606  1.0000
  C   C39       1.0  0.00000  0.75000  0.74424  1.0000
  C   C40       1.0  0.16667  0.83333  0.74309  1.0000
  C   C41       1.0  0.25000  0.00000  0.74427  1.0000
  C   C42       1.0  0.41667  0.08333  0.74521  1.0000
  C   C43       1.0  0.25000  0.25000  0.74951  1.0000
  C   C44       1.0  0.41667  0.33333  0.75167  1.0000
  C   C45       1.0  0.25000  0.50000  0.74977  1.0000
  C   C46       1.0  0.41667  0.58333  0.75202  1.0000
  C   C47       1.0  0.25000  0.75000  0.74425  1.0000
  C   C48       1.0  0.41667  0.83333  0.74506  1.0000
  C   C49       1.0  0.50000  0.00000  0.74407  1.0000
  C   C50       1.0  0.66667  0.08333  0.74424  1.0000
  C   C51       1.0  0.50000  0.25000  0.74884  1.0000
  C   C52       1.0  0.66667  0.33333  0.74796  1.0000
  C   C53       1.0  0.50000  0.50000  0.75387  1.0000
  C   C54       1.0  0.66667  0.58333  0.75196  1.0000
  C   C55       1.0  0.50000  0.75000  0.74872  1.0000
  C   C56       1.0  0.66667  0.83333  0.74796  1.0000
  C   C57       1.0  0.75000  0.00000  0.74475  1.0000
  C   C58       1.0  0.91667  0.08333  0.74525  1.0000
  C   C59       1.0  0.75000  0.25000  0.74499  1.0000
  C   C60       1.0  0.91667  0.33333  0.74568  1.0000
  C   C61       1.0  0.75000  0.50000  0.74927  1.0000
  C   C62       1.0  0.91667  0.58333  0.74574  1.0000
  C   C63       1.0  0.75000  0.75000  0.74919  1.0000
  C   C64       1.0  0.91667  0.83333  0.74535  1.0000
  C   C65       1.0  0.65121  0.58207  0.41092  1.0000
  C   C66       1.0  0.56059  0.41229  0.40735  1.0000
  C   C67       1.0  0.39570  0.36570  0.40138  1.0000
  C   C68       1.0  0.38425  0.50722  0.40143  1.0000
  C   C69       1.0  0.54245  0.64079  0.40751  1.0000
  C   C70       1.0  0.82901  0.68150  0.42090  1.0000
  H   H1        1.0  0.61259  0.33020  0.41159  1.0000
  H   H2        1.0  0.29259  0.23820  0.39868  1.0000
  H   H3        1.0  0.27018  0.51324  0.39894  1.0000
  H   H4        1.0  0.57704  0.77140  0.41152  1.0000
  Fe  Fe1       1.0  0.48938  0.49247  0.50057  1.0000
  C   C71       1.0  0.33112  0.39858  0.59201  1.0000
  C   C72       1.0  0.41683  0.56840  0.59544  1.0000
  C   C73       1.0  0.58317  0.62084  0.59888  1.0000
  C   C74       1.0  0.60068  0.48276  0.59799  1.0000
  C   C75       1.0  0.44482  0.34574  0.59357  1.0000
  C   C76       1.0  0.15304  0.29370  0.58464  1.0000
  H   H5        1.0  0.36030  0.64671  0.59339  1.0000
  H   H6        1.0  0.68334  0.74965  0.60048  1.0000
  H   H7        1.0  0.71804  0.48288  0.59811  1.0000
  H   H8        1.0  0.41374  0.21600  0.58964  1.0000
  H   H9        1.0  0.09135  0.35761  0.60995  1.0000
  H   H10       1.0  0.11320  0.17753  0.61728  1.0000
  H   H11       1.0  0.11402  0.26267  0.52258  1.0000
  H   H12       1.0  0.88838  0.61151  0.40038  1.0000
  H   H13       1.0  0.86407  0.71828  0.48293  1.0000
  H   H14       1.0  0.87556  0.79531  0.38559  1.0000
